44

H        10.02391       23.16673       28.46685
C        10.26396       22.26514       27.91726
H        10.08016       21.51138       30.50987
H        10.29691       22.86263       25.80598
C        10.40866       22.11463       26.57969
H        10.77290       19.94132       32.57562
C        10.33096       20.67228       29.86551
C        10.48193       20.96145       28.51811
C        10.18379       19.24245       31.97541
H         9.13008       19.45164       32.19701
C        10.44672       19.42334       30.49173
C        10.71122       20.71471       26.33804
N        10.79323       20.05916       27.53849
C        10.54327       17.77351       32.22343
H        11.44627       17.67253       32.83788
H        10.73335       20.80581       24.23571
N        10.75137       18.27167       29.90089
C        10.84146       20.13804       25.08595
H         9.75217       17.21984       32.73907
C        10.78236       17.24257       30.82788
Mg       11.24031       18.06851       27.79121
C        11.04263       18.78270       24.78729
C        11.00019       15.94201       30.48256
N        11.11897       17.79641       25.67668
C        11.15658       18.26920       23.36778
H        10.20045       18.41060       22.86071
H        11.90372       18.82424       22.79481
C        11.06694       14.71530       31.37063
N        11.19030       16.07404       27.96835
C        11.17780       15.46809       29.15941
H        11.89819       14.73299       32.08579
H        10.15067       14.54776       31.95034
C        11.32727       16.58380       25.05039
C        11.50515       16.79181       23.56023
C        11.34673       15.07257       27.04209
C        11.33286       14.07470       29.05234
C        11.28386       13.50791       30.40571
C        11.41093       15.36114       25.65332
H        10.86666       16.11805       22.98396
H        12.54482       16.58167       23.28044
C        11.44021       13.80902       27.68797
O        11.38133       12.36308       30.78196
H        11.55516       14.50939       24.99285
H        11.54463       12.85012       27.19731
