44

H         3.81279       20.90612       26.43021
C         4.12277       20.01886       25.89379
H         3.87762       19.25978       28.48708
H         4.23771       20.64549       23.77287
C         4.33778       19.88293       24.53486
C         4.10514       18.41325       27.83987
H         4.64237       17.63629       30.51973
C         4.34829       18.75082       26.47705
C         3.99060       16.97646       29.94266
H         2.96134       17.19892       30.22804
C         4.17386       17.18537       28.45279
C         4.68636       18.53338       24.29976
N         4.76584       17.86254       25.50542
C         4.31741       15.49346       30.13244
H         4.79350       18.62368       22.18674
H         5.25499       15.34170       30.67931
C         4.81764       17.92719       23.02281
N         4.42471       15.99550       27.82445
H         3.55239       14.92921       30.66986
C         4.47117       14.99564       28.71939
Mg        4.91898       15.82454       25.72381
C         4.89319       16.59984       22.70206
N         4.88625       15.56569       23.60317
C         4.66068       13.65916       28.36515
C         4.88405       16.05901       21.28462
H         3.88732       16.18880       20.84264
H         5.59072       16.57485       20.62993
N         4.77418       13.83699       25.86612
C         4.77480       13.22305       27.05561
C         4.73541       12.43899       29.26347
H         3.81988       12.28606       29.84741
H         5.58779       12.45247       29.95340
C         5.00791       14.38928       22.97828
C         5.20437       14.57775       21.48807
C         4.94267       12.85335       24.93278
C         5.03473       13.12180       23.57230
C         4.93129       11.80631       26.92874
H         4.57558       13.90533       20.89810
C         4.91514       11.23864       28.30146
H         6.24879       14.34828       21.24163
C         5.03241       11.55111       25.59324
O         5.00262       10.08368       28.63774
H         5.16453       12.27521       22.90387
H         5.16156       10.60190       25.08847
