44

H    16.32250   21.93143   29.47779
C    16.55276   21.02668   28.92904
H    16.76653   20.32186   31.54651
H    16.51840   21.64234   26.78853
C    16.65637   20.87798   27.54419
H    17.92131   18.63162   33.48036
C    16.91457   19.46746   30.89026
C    16.85422   19.76635   29.49603
C    17.12271   18.05784   33.00707
H    16.17977   18.39183   33.45158
C    17.12585   18.26813   31.50292
C    17.02116   19.53030   27.30547
N    17.11452   18.86586   28.49790
C    17.33085   16.54697   33.15944
H    18.21815   16.29409   33.74600
H    17.25419   19.66328   25.19936
N    17.32966   17.06450   30.84976
C    17.29427   18.95840   26.02780
H    16.47875   16.03601   33.62325
C    17.48194   16.07646   31.73744
Mg   17.18253   16.84745   28.69025
C    17.56495   17.66397   25.70699
C    17.72937   14.75009   31.37092
N    17.61556   16.62005   26.60444
C    17.81485   17.16378   24.29575
H    16.97832   17.40791   23.63454
H    18.70897   17.62685   23.86325
C    17.89805   13.54617   32.27251
N    17.71826   14.91987   28.87255
C    17.83280   14.32232   30.06697
H    18.70017   13.63686   33.01260
H    16.97330   13.30114   32.81008
C    17.86141   15.46754   25.98053
C    17.97392   15.65108   24.48047
C    17.97822   13.95395   27.94330
C    18.14725   12.92932   29.94249
C    18.22949   12.37333   31.31594
C    18.01838   14.20997   26.57967
H    17.18791   15.08051   23.97343
H    18.93036   15.26754   24.11005
C    18.24147   12.67473   28.60981
O    18.48939   11.24616   31.65833
H    18.22244   13.37387   25.91704
H    18.46992   11.74438   28.10512
