44

H        13.08866       25.38250       28.73442
C        13.27191       24.47722       28.16858
H        13.18650       23.70772       30.76515
H        13.36024       25.10848       26.07180
C        13.40842       24.33996       26.83355
H        13.96682       22.12189       32.75295
C        13.34750       22.86338       30.10055
C        13.41580       23.14354       28.74919
C        13.31352       21.43103       32.21178
H        12.28404       21.66377       32.51091
C        13.44427       21.59936       30.71343
C        13.63794       22.91993       26.57413
N        13.63097       22.24106       27.75357
C        13.66864       19.95623       32.42649
H        14.66614       19.85138       32.86828
H        13.80499       23.06094       24.47991
N        13.61531       20.44217       30.09723
C        13.82587       22.37170       25.31958
H        12.97067       19.42809       33.08137
C        13.67732       19.40507       31.02057
Mg       14.04902       20.24782       27.98715
C        14.00837       21.01186       25.00189
C        13.81164       18.11038       30.64937
N        14.05760       20.00898       25.86301
C        14.11631       20.53793       23.57074
H        13.13291       20.63764       23.09483
H        14.82096       21.14008       22.99004
C        14.03590       16.89957       31.52145
N        13.75069       18.22226       28.09687
C        13.91844       17.63853       29.30683
H        14.81937       17.03404       32.27133
H        13.13017       16.59525       32.05438
C        14.26403       18.80552       25.20085
C        14.53933       19.07853       23.73622
C        14.18348       17.27203       27.17284
C        14.36065       16.31520       29.20136
C        14.42838       15.75183       30.55598
C        14.31568       17.57996       25.78122
H        14.02141       18.38679       23.06850
H        15.61361       18.97183       23.54790
C        14.52904       16.06914       27.82004
O        14.71772       14.63322       30.92448
H        14.54798       16.73749       25.13465
H        14.84731       15.15422       27.33611
